10

O    0.0000000   -0.5187733   -1.8284568
C    0.0000000    0.6861622   -1.7370941
H    0.0000000    1.3307747   -2.6318635
H    0.0000000    1.1890281   -0.7564550
---
C    0.0000000   -0.5979709    1.4774286
C    0.0000000    0.4213120    2.3395785
H    0.9211335   -1.0295710    1.1065352
H   -0.9211335   -1.0295710    1.1065352
H   -0.9239382    0.8512483    2.7069463
H    0.9239382    0.8512483    2.7069463
